# Packages
 &PACKAGES
  useDiagnostics = .TRUE.,
  usePTRACERS =.TRUE.,
  useFLT =.FALSE.,
 &
